%nprocshared=8
%chk=E:\Zielesny\G09W\Me2O_SP.chk
# wb97xd/6-311++g(d,p) geom=connectivity

Me2O_SP

0 1
C	0.	1.174656	-0.17542
H	0.	2.06353	0.493176
H	0.911157	1.220648	-0.815119
H	-0.911159	1.220647	-0.815119
O	0.	0.	0.620996
C	0.	-1.174655	-0.175421
H	0.911158	-1.220646	-0.81512
H	1.e-6	-2.06353	0.493175
H	-0.911158	-1.220647	-0.815119

 1 2 1.0 3 1.0 4 1.0 5 1.0
 2
 3
 4
 5 6 1.0
 6 7 1.0 8 1.0 9 1.0
 7
 8
 9

